Version 4
SHEET 1 880 680
WIRE -416 128 -512 128
WIRE -192 128 -352 128
WIRE -64 144 -128 144
WIRE 112 144 -64 144
WIRE 128 144 112 144
WIRE -352 160 -352 128
WIRE -192 160 -224 160
WIRE 560 256 560 224
WIRE 656 256 560 256
WIRE -224 272 -224 160
WIRE -192 272 -224 272
WIRE -64 272 -64 144
WIRE -64 272 -112 272
WIRE 560 272 560 256
WIRE 656 288 656 256
WIRE -352 304 -352 240
FLAG -512 128 Vin
FLAG 112 144 Vout
FLAG 608 -32 Vin
FLAG 608 48 0
FLAG 656 288 0
FLAG 560 144 Vcc
FLAG -160 176 Vcc
FLAG 560 352 Vdd
FLAG -160 112 Vdd
FLAG -352 304 0
FLAG -224 416 0
SYMBOL voltage 560 128 R0
WINDOW 123 0 0 Left 0
WINDOW 39 0 0 Left 0
SYMATTR InstName V1
SYMATTR Value 12
SYMBOL voltage 608 -48 R0
WINDOW 123 24 124 Left 2
WINDOW 39 0 0 Left 0
SYMATTR InstName V2
SYMATTR Value 5
SYMATTR Value2 AC 1
SYMBOL OpAmps\\OP747 -160 208 M180
SYMATTR InstName U1
SYMBOL voltage 560 256 R0
WINDOW 123 0 0 Left 0
WINDOW 39 0 0 Left 0
SYMATTR InstName V3
SYMATTR Value 12
SYMBOL res -96 256 R90
WINDOW 0 0 56 VBottom 2
WINDOW 3 32 56 VTop 2
SYMATTR InstName R1
SYMATTR Value 80k
SYMBOL res -208 368 R180
WINDOW 0 36 76 Left 2
WINDOW 3 36 40 Left 2
SYMATTR InstName R2
SYMATTR Value 1k
SYMBOL res -368 144 R0
SYMATTR InstName R3
SYMATTR Value 80k
SYMBOL cap -240 352 R0
SYMATTR InstName C4
SYMATTR Value 1n
SYMBOL cap -352 112 R90
WINDOW 0 0 32 VBottom 2
WINDOW 3 32 32 VTop 2
SYMATTR InstName C3
SYMATTR Value 1n
TEXT -668 448 Left 2 !.ac dec 1000 1 100meg
