Version 4
SHEET 1 880 680
WIRE -304 -208 -304 -240
WIRE -400 -96 -480 -96
WIRE -304 -96 -304 -128
WIRE -304 -96 -400 -96
WIRE -480 -48 -480 -96
WIRE -400 -48 -400 -96
WIRE -304 -48 -304 -96
WIRE -480 48 -480 16
WIRE -400 48 -400 32
WIRE -400 48 -480 48
WIRE -400 64 -400 48
WIRE -544 128 -704 128
WIRE -304 128 -304 32
WIRE -304 128 -480 128
WIRE -192 128 -304 128
WIRE -64 144 -128 144
WIRE 112 144 -64 144
WIRE 128 144 112 144
WIRE -544 160 -544 128
WIRE -192 160 -224 160
WIRE 320 256 320 224
WIRE 416 256 320 256
WIRE -224 272 -224 160
WIRE -192 272 -224 272
WIRE -64 272 -64 144
WIRE -64 272 -112 272
WIRE 320 288 320 256
WIRE 416 288 416 256
WIRE -544 304 -544 240
FLAG -704 128 Vin
FLAG 112 144 Vout
FLAG 320 -96 Vin
FLAG 320 -16 0
FLAG 416 288 0
FLAG 320 144 Vcc
FLAG -160 176 Vcc
FLAG 320 288 Vdd
FLAG -160 112 Vdd
FLAG -544 304 0
FLAG -224 416 0
FLAG -304 -240 Vcc
FLAG -400 64 0
SYMBOL voltage 320 128 R0
WINDOW 123 0 0 Left 0
WINDOW 39 0 0 Left 0
SYMATTR InstName V1
SYMATTR Value 10
SYMBOL voltage 320 -112 R0
WINDOW 123 24 124 Left 2
WINDOW 39 0 0 Left 0
SYMATTR Value2 AC 1
SYMATTR InstName V2
SYMATTR Value SINE(0 100m 40k)
SYMBOL res -96 256 R90
WINDOW 0 0 56 VBottom 2
WINDOW 3 32 56 VTop 2
SYMATTR InstName R1
SYMATTR Value 80k
SYMBOL res -208 368 R180
WINDOW 0 36 76 Left 2
WINDOW 3 36 40 Left 2
SYMATTR InstName R2
SYMATTR Value 1k
SYMBOL res -560 144 R0
SYMATTR InstName R3
SYMATTR Value 80k
SYMBOL cap -240 352 R0
SYMATTR InstName C4
SYMATTR Value 1n
SYMBOL cap -480 112 R90
WINDOW 0 0 32 VBottom 2
WINDOW 3 32 32 VTop 2
SYMATTR InstName C3
SYMATTR Value 1n
SYMBOL res -320 -64 R0
SYMATTR InstName R4
SYMATTR Value 100k
SYMBOL cap -496 -48 R0
SYMATTR InstName C1
SYMATTR Value 10µ
SYMBOL res -416 -64 R0
SYMATTR InstName R5
SYMATTR Value 100k
SYMBOL res -320 -224 R0
SYMATTR InstName R6
SYMATTR Value 100k
SYMBOL OpAmps\\UniversalOpAmp2 -160 144 M180
SYMATTR InstName U2
SYMATTR Value2 Avol=1Meg GBW=10Meg Slew=2.3meg
TEXT 288 -208 Left 2 !.ac dec 1000 1k 1meg
TEXT -584 368 Left 2 ;HP
TEXT -520 -320 Left 2 ;DC Offset
TEXT -304 480 Left 2 ;Gain + LP
LINE Normal -176 -304 -528 -304 2
LINE Normal -176 48 -176 -304 2
LINE Normal -272 48 -176 48 2
LINE Normal -272 160 -272 48 2
LINE Normal -448 160 -272 160 2
LINE Normal -448 80 -448 160 2
LINE Normal -528 80 -448 80 2
LINE Normal -528 80 -528 -304 2
LINE Normal -592 80 -528 80 2
LINE Normal -592 352 -592 80 2
LINE Normal -448 352 -448 160 2
LINE Normal -592 352 -448 352 2
LINE Normal -320 464 -320 160 2
LINE Normal -16 464 -320 464 2
LINE Normal -16 48 -16 464 2
LINE Normal -176 48 -16 48 2
